768
 generated by VMD
 Si       -8.462000       -8.462000      -13.896000
 O        -8.762000       -9.442000      -12.656000
 Si       -6.472000       -6.472000      -10.422000
 O        -6.172000       -5.492000       -9.182000
 Si       -8.961000       -5.973000      -12.159000
 O        -7.981000       -6.273000      -10.919000
 Si       -5.973000       -8.961000       -8.685000
 O        -6.953000       -8.661000       -7.445000
 O        -8.661000       -6.953000      -13.399000
 O        -6.273000       -7.981000       -9.925000
 O        -9.442000       -8.762000       -8.188000
 O        -5.492000       -6.172000      -11.662000
 Si       -8.462000       -8.462000       -6.948000
 O        -8.762000       -9.442000       -5.708000
 Si       -6.472000       -6.472000       -3.474000
 O        -6.172000       -5.492000       -2.234000
 Si       -8.961000       -5.973000       -5.211000
 O        -7.981000       -6.273000       -3.971000
 Si       -5.973000       -8.961000       -1.737000
 O        -6.953000       -8.661000       -0.497000
 O        -8.661000       -6.953000       -6.451000
 O        -6.273000       -7.981000       -2.977000
 O        -9.442000       -8.762000       -1.240000
 O        -5.492000       -6.172000       -4.714000
 Si       -8.462000       -8.462000        0.000000
 O        -8.762000       -9.442000        1.240000
 Si       -6.472000       -6.472000        3.474000
 O        -6.172000       -5.492000        4.714000
 Si       -8.961000       -5.973000        1.737000
 O        -7.981000       -6.273000        2.977000
 Si       -5.973000       -8.961000        5.211000
 O        -6.953000       -8.661000        6.451000
 O        -8.661000       -6.953000        0.497000
 O        -6.273000       -7.981000        3.971000
 O        -9.442000       -8.762000        5.708000
 O        -5.492000       -6.172000        2.234000
 Si       -8.462000       -8.462000        6.948000
 O        -8.762000       -9.442000        8.188000
 Si       -6.472000       -6.472000       10.422000
 O        -6.172000       -5.492000       11.662000
 Si       -8.961000       -5.973000        8.685000
 O        -7.981000       -6.273000        9.925000
 Si       -5.973000       -8.961000       12.159000
 O        -6.953000       -8.661000       13.399000
 O        -8.661000       -6.953000        7.445000
 O        -6.273000       -7.981000       10.919000
 O        -9.442000       -8.762000       12.656000
 O        -5.492000       -6.172000        9.182000
 Si       -8.462000       -3.484000      -13.896000
 O        -8.762000       -4.464000      -12.656000
 Si       -6.472000       -1.494000      -10.422000
 O        -6.172000       -0.514000       -9.182000
 Si       -8.961000       -0.995000      -12.159000
 O        -7.981000       -1.295000      -10.919000
 Si       -5.973000       -3.983000       -8.685000
 O        -6.953000       -3.683000       -7.445000
 O        -8.661000       -1.975000      -13.399000
 O        -6.273000       -3.003000       -9.925000
 O        -9.442000       -3.784000       -8.188000
 O        -5.492000       -1.194000      -11.662000
 Si       -8.462000       -3.484000       -6.948000
 O        -8.762000       -4.464000       -5.708000
 Si       -6.472000       -1.494000       -3.474000
 O        -6.172000       -0.514000       -2.234000
 Si       -8.961000       -0.995000       -5.211000
 O        -7.981000       -1.295000       -3.971000
 Si       -5.973000       -3.983000       -1.737000
 O        -6.953000       -3.683000       -0.497000
 O        -8.661000       -1.975000       -6.451000
 O        -6.273000       -3.003000       -2.977000
 O        -9.442000       -3.784000       -1.240000
 O        -5.492000       -1.194000       -4.714000
 Si       -8.462000       -3.484000        0.000000
 O        -8.762000       -4.464000        1.240000
 Si       -6.472000       -1.494000        3.474000
 O        -6.172000       -0.514000        4.714000
 Si       -8.961000       -0.995000        1.737000
 O        -7.981000       -1.295000        2.977000
 Si       -5.973000       -3.983000        5.211000
 O        -6.953000       -3.683000        6.451000
 O        -8.661000       -1.975000        0.497000
 O        -6.273000       -3.003000        3.971000
 O        -9.442000       -3.784000        5.708000
 O        -5.492000       -1.194000        2.234000
 Si       -8.462000       -3.484000        6.948000
 O        -8.762000       -4.464000        8.188000
 Si       -6.472000       -1.494000       10.422000
 O        -6.172000       -0.514000       11.662000
 Si       -8.961000       -0.995000        8.685000
 O        -7.981000       -1.295000        9.925000
 Si       -5.973000       -3.983000       12.159000
 O        -6.953000       -3.683000       13.399000
 O        -8.661000       -1.975000        7.445000
 O        -6.273000       -3.003000       10.919000
 O        -9.442000       -3.784000       12.656000
 O        -5.492000       -1.194000        9.182000
 Si       -8.462000        1.494000      -13.896000
 O        -8.762000        0.514000      -12.656000
 Si       -6.472000        3.484000      -10.422000
 O        -6.172000        4.464000       -9.182000
 Si       -8.961000        3.983000      -12.159000
 O        -7.981000        3.683000      -10.919000
 Si       -5.973000        0.995000       -8.685000
 O        -6.953000        1.295000       -7.445000
 O        -8.661000        3.003000      -13.399000
 O        -6.273000        1.975000       -9.925000
 O        -9.442000        1.194000       -8.188000
 O        -5.492000        3.784000      -11.662000
 Si       -8.462000        1.494000       -6.948000
 O        -8.762000        0.514000       -5.708000
 Si       -6.472000        3.484000       -3.474000
 O        -6.172000        4.464000       -2.234000
 Si       -8.961000        3.983000       -5.211000
 O        -7.981000        3.683000       -3.971000
 Si       -5.973000        0.995000       -1.737000
 O        -6.953000        1.295000       -0.497000
 O        -8.661000        3.003000       -6.451000
 O        -6.273000        1.975000       -2.977000
 O        -9.442000        1.194000       -1.240000
 O        -5.492000        3.784000       -4.714000
 Si       -8.462000        1.494000        0.000000
 O        -8.762000        0.514000        1.240000
 Si       -6.472000        3.484000        3.474000
 O        -6.172000        4.464000        4.714000
 Si       -8.961000        3.983000        1.737000
 O        -7.981000        3.683000        2.977000
 Si       -5.973000        0.995000        5.211000
 O        -6.953000        1.295000        6.451000
 O        -8.661000        3.003000        0.497000
 O        -6.273000        1.975000        3.971000
 O        -9.442000        1.194000        5.708000
 O        -5.492000        3.784000        2.234000
 Si       -8.462000        1.494000        6.948000
 O        -8.762000        0.514000        8.188000
 Si       -6.472000        3.484000       10.422000
 O        -6.172000        4.464000       11.662000
 Si       -8.961000        3.983000        8.685000
 O        -7.981000        3.683000        9.925000
 Si       -5.973000        0.995000       12.159000
 O        -6.953000        1.295000       13.399000
 O        -8.661000        3.003000        7.445000
 O        -6.273000        1.975000       10.919000
 O        -9.442000        1.194000       12.656000
 O        -5.492000        3.784000        9.182000
 Si       -8.462000        6.472000      -13.896000
 O        -8.762000        5.492000      -12.656000
 Si       -6.472000        8.462000      -10.422000
 O        -6.172000        9.442000       -9.182000
 Si       -8.961000        8.961000      -12.159000
 O        -7.981000        8.661000      -10.919000
 Si       -5.973000        5.973000       -8.685000
 O        -6.953000        6.273000       -7.445000
 O        -8.661000        7.981000      -13.399000
 O        -6.273000        6.953000       -9.925000
 O        -9.442000        6.172000       -8.188000
 O        -5.492000        8.762000      -11.662000
 Si       -8.462000        6.472000       -6.948000
 O        -8.762000        5.492000       -5.708000
 Si       -6.472000        8.462000       -3.474000
 O        -6.172000        9.442000       -2.234000
 Si       -8.961000        8.961000       -5.211000
 O        -7.981000        8.661000       -3.971000
 Si       -5.973000        5.973000       -1.737000
 O        -6.953000        6.273000       -0.497000
 O        -8.661000        7.981000       -6.451000
 O        -6.273000        6.953000       -2.977000
 O        -9.442000        6.172000       -1.240000
 O        -5.492000        8.762000       -4.714000
 Si       -8.462000        6.472000        0.000000
 O        -8.762000        5.492000        1.240000
 Si       -6.472000        8.462000        3.474000
 O        -6.172000        9.442000        4.714000
 Si       -8.961000        8.961000        1.737000
 O        -7.981000        8.661000        2.977000
 Si       -5.973000        5.973000        5.211000
 O        -6.953000        6.273000        6.451000
 O        -8.661000        7.981000        0.497000
 O        -6.273000        6.953000        3.971000
 O        -9.442000        6.172000        5.708000
 O        -5.492000        8.762000        2.234000
 Si       -8.462000        6.472000        6.948000
 O        -8.762000        5.492000        8.188000
 Si       -6.472000        8.462000       10.422000
 O        -6.172000        9.442000       11.662000
 Si       -8.961000        8.961000        8.685000
 O        -7.981000        8.661000        9.925000
 Si       -5.973000        5.973000       12.159000
 O        -6.953000        6.273000       13.399000
 O        -8.661000        7.981000        7.445000
 O        -6.273000        6.953000       10.919000
 O        -9.442000        6.172000       12.656000
 O        -5.492000        8.762000        9.182000
 Si       -3.484000       -8.462000      -13.896000
 O        -3.784000       -9.442000      -12.656000
 Si       -1.494000       -6.472000      -10.422000
 O        -1.194000       -5.492000       -9.182000
 Si       -3.983000       -5.973000      -12.159000
 O        -3.003000       -6.273000      -10.919000
 Si       -0.995000       -8.961000       -8.685000
 O        -1.975000       -8.661000       -7.445000
 O        -3.683000       -6.953000      -13.399000
 O        -1.295000       -7.981000       -9.925000
 O        -4.464000       -8.762000       -8.188000
 O        -0.514000       -6.172000      -11.662000
 Si       -3.484000       -8.462000       -6.948000
 O        -3.784000       -9.442000       -5.708000
 Si       -1.494000       -6.472000       -3.474000
 O        -1.194000       -5.492000       -2.234000
 Si       -3.983000       -5.973000       -5.211000
 O        -3.003000       -6.273000       -3.971000
 Si       -0.995000       -8.961000       -1.737000
 O        -1.975000       -8.661000       -0.497000
 O        -3.683000       -6.953000       -6.451000
 O        -1.295000       -7.981000       -2.977000
 O        -4.464000       -8.762000       -1.240000
 O        -0.514000       -6.172000       -4.714000
 Si       -3.484000       -8.462000        0.000000
 O        -3.784000       -9.442000        1.240000
 Si       -1.494000       -6.472000        3.474000
 O        -1.194000       -5.492000        4.714000
 Si       -3.983000       -5.973000        1.737000
 O        -3.003000       -6.273000        2.977000
 Si       -0.995000       -8.961000        5.211000
 O        -1.975000       -8.661000        6.451000
 O        -3.683000       -6.953000        0.497000
 O        -1.295000       -7.981000        3.971000
 O        -4.464000       -8.762000        5.708000
 O        -0.514000       -6.172000        2.234000
 Si       -3.484000       -8.462000        6.948000
 O        -3.784000       -9.442000        8.188000
 Si       -1.494000       -6.472000       10.422000
 O        -1.194000       -5.492000       11.662000
 Si       -3.983000       -5.973000        8.685000
 O        -3.003000       -6.273000        9.925000
 Si       -0.995000       -8.961000       12.159000
 O        -1.975000       -8.661000       13.399000
 O        -3.683000       -6.953000        7.445000
 O        -1.295000       -7.981000       10.919000
 O        -4.464000       -8.762000       12.656000
 O        -0.514000       -6.172000        9.182000
 Si       -3.484000       -3.484000      -13.896000
 O        -3.784000       -4.464000      -12.656000
 Si       -1.494000       -1.494000      -10.422000
 O        -1.194000       -0.514000       -9.182000
 Si       -3.983000       -0.995000      -12.159000
 O        -3.003000       -1.295000      -10.919000
 Si       -0.995000       -3.983000       -8.685000
 O        -1.975000       -3.683000       -7.445000
 O        -3.683000       -1.975000      -13.399000
 O        -1.295000       -3.003000       -9.925000
 O        -4.464000       -3.784000       -8.188000
 O        -0.514000       -1.194000      -11.662000
 Si       -3.484000       -3.484000       -6.948000
 O        -3.784000       -4.464000       -5.708000
 Si       -1.494000       -1.494000       -3.474000
 O        -1.194000       -0.514000       -2.234000
 Si       -3.983000       -0.995000       -5.211000
 O        -3.003000       -1.295000       -3.971000
 Si       -0.995000       -3.983000       -1.737000
 O        -1.975000       -3.683000       -0.497000
 O        -3.683000       -1.975000       -6.451000
 O        -1.295000       -3.003000       -2.977000
 O        -4.464000       -3.784000       -1.240000
 O        -0.514000       -1.194000       -4.714000
 Si       -3.484000       -3.484000        0.000000
 O        -3.784000       -4.464000        1.240000
 Si       -1.494000       -1.494000        3.474000
 O        -1.194000       -0.514000        4.714000
 Si       -3.983000       -0.995000        1.737000
 O        -3.003000       -1.295000        2.977000
 Si       -0.995000       -3.983000        5.211000
 O        -1.975000       -3.683000        6.451000
 O        -3.683000       -1.975000        0.497000
 O        -1.295000       -3.003000        3.971000
 O        -4.464000       -3.784000        5.708000
 O        -0.514000       -1.194000        2.234000
 Si       -3.484000       -3.484000        6.948000
 O        -3.784000       -4.464000        8.188000
 Si       -1.494000       -1.494000       10.422000
 O        -1.194000       -0.514000       11.662000
 Si       -3.983000       -0.995000        8.685000
 O        -3.003000       -1.295000        9.925000
 Si       -0.995000       -3.983000       12.159000
 O        -1.975000       -3.683000       13.399000
 O        -3.683000       -1.975000        7.445000
 O        -1.295000       -3.003000       10.919000
 O        -4.464000       -3.784000       12.656000
 O        -0.514000       -1.194000        9.182000
 Si       -3.484000        1.494000      -13.896000
 O        -3.784000        0.514000      -12.656000
 Si       -1.494000        3.484000      -10.422000
 O        -1.194000        4.464000       -9.182000
 Si       -3.983000        3.983000      -12.159000
 O        -3.003000        3.683000      -10.919000
 Si       -0.995000        0.995000       -8.685000
 O        -1.975000        1.295000       -7.445000
 O        -3.683000        3.003000      -13.399000
 O        -1.295000        1.975000       -9.925000
 O        -4.464000        1.194000       -8.188000
 O        -0.514000        3.784000      -11.662000
 Si       -3.484000        1.494000       -6.948000
 O        -3.784000        0.514000       -5.708000
 Si       -1.494000        3.484000       -3.474000
 O        -1.194000        4.464000       -2.234000
 Si       -3.983000        3.983000       -5.211000
 O        -3.003000        3.683000       -3.971000
 Si       -0.995000        0.995000       -1.737000
 O        -1.975000        1.295000       -0.497000
 O        -3.683000        3.003000       -6.451000
 O        -1.295000        1.975000       -2.977000
 O        -4.464000        1.194000       -1.240000
 O        -0.514000        3.784000       -4.714000
 Si       -3.484000        1.494000        0.000000
 O        -3.784000        0.514000        1.240000
 Si       -1.494000        3.484000        3.474000
 O        -1.194000        4.464000        4.714000
 Si       -3.983000        3.983000        1.737000
 O        -3.003000        3.683000        2.977000
 Si       -0.995000        0.995000        5.211000
 O        -1.975000        1.295000        6.451000
 O        -3.683000        3.003000        0.497000
 O        -1.295000        1.975000        3.971000
 O        -4.464000        1.194000        5.708000
 O        -0.514000        3.784000        2.234000
 Si       -3.484000        1.494000        6.948000
 O        -3.784000        0.514000        8.188000
 Si       -1.494000        3.484000       10.422000
 O        -1.194000        4.464000       11.662000
 Si       -3.983000        3.983000        8.685000
 O        -3.003000        3.683000        9.925000
 Si       -0.995000        0.995000       12.159000
 O        -1.975000        1.295000       13.399000
 O        -3.683000        3.003000        7.445000
 O        -1.295000        1.975000       10.919000
 O        -4.464000        1.194000       12.656000
 O        -0.514000        3.784000        9.182000
 Si       -3.484000        6.472000      -13.896000
 O        -3.784000        5.492000      -12.656000
 Si       -1.494000        8.462000      -10.422000
 O        -1.194000        9.442000       -9.182000
 Si       -3.983000        8.961000      -12.159000
 O        -3.003000        8.661000      -10.919000
 Si       -0.995000        5.973000       -8.685000
 O        -1.975000        6.273000       -7.445000
 O        -3.683000        7.981000      -13.399000
 O        -1.295000        6.953000       -9.925000
 O        -4.464000        6.172000       -8.188000
 O        -0.514000        8.762000      -11.662000
 Si       -3.484000        6.472000       -6.948000
 O        -3.784000        5.492000       -5.708000
 Si       -1.494000        8.462000       -3.474000
 O        -1.194000        9.442000       -2.234000
 Si       -3.983000        8.961000       -5.211000
 O        -3.003000        8.661000       -3.971000
 Si       -0.995000        5.973000       -1.737000
 O        -1.975000        6.273000       -0.497000
 O        -3.683000        7.981000       -6.451000
 O        -1.295000        6.953000       -2.977000
 O        -4.464000        6.172000       -1.240000
 O        -0.514000        8.762000       -4.714000
 Si       -3.484000        6.472000        0.000000
 O        -3.784000        5.492000        1.240000
 Si       -1.494000        8.462000        3.474000
 O        -1.194000        9.442000        4.714000
 Si       -3.983000        8.961000        1.737000
 O        -3.003000        8.661000        2.977000
 Si       -0.995000        5.973000        5.211000
 O        -1.975000        6.273000        6.451000
 O        -3.683000        7.981000        0.497000
 O        -1.295000        6.953000        3.971000
 O        -4.464000        6.172000        5.708000
 O        -0.514000        8.762000        2.234000
 Si       -3.484000        6.472000        6.948000
 O        -3.784000        5.492000        8.188000
 Si       -1.494000        8.462000       10.422000
 O        -1.194000        9.442000       11.662000
 Si       -3.983000        8.961000        8.685000
 O        -3.003000        8.661000        9.925000
 Si       -0.995000        5.973000       12.159000
 O        -1.975000        6.273000       13.399000
 O        -3.683000        7.981000        7.445000
 O        -1.295000        6.953000       10.919000
 O        -4.464000        6.172000       12.656000
 O        -0.514000        8.762000        9.182000
 Si        1.494000       -8.462000      -13.896000
 O         1.194000       -9.442000      -12.656000
 Si        3.484000       -6.472000      -10.422000
 O         3.784000       -5.492000       -9.182000
 Si        0.995000       -5.973000      -12.159000
 O         1.975000       -6.273000      -10.919000
 Si        3.983000       -8.961000       -8.685000
 O         3.003000       -8.661000       -7.445000
 O         1.295000       -6.953000      -13.399000
 O         3.683000       -7.981000       -9.925000
 O         0.514000       -8.762000       -8.188000
 O         4.464000       -6.172000      -11.662000
 Si        1.494000       -8.462000       -6.948000
 O         1.194000       -9.442000       -5.708000
 Si        3.484000       -6.472000       -3.474000
 O         3.784000       -5.492000       -2.234000
 Si        0.995000       -5.973000       -5.211000
 O         1.975000       -6.273000       -3.971000
 Si        3.983000       -8.961000       -1.737000
 O         3.003000       -8.661000       -0.497000
 O         1.295000       -6.953000       -6.451000
 O         3.683000       -7.981000       -2.977000
 O         0.514000       -8.762000       -1.240000
 O         4.464000       -6.172000       -4.714000
 Si        1.494000       -8.462000        0.000000
 O         1.194000       -9.442000        1.240000
 Si        3.484000       -6.472000        3.474000
 O         3.784000       -5.492000        4.714000
 Si        0.995000       -5.973000        1.737000
 O         1.975000       -6.273000        2.977000
 Si        3.983000       -8.961000        5.211000
 O         3.003000       -8.661000        6.451000
 O         1.295000       -6.953000        0.497000
 O         3.683000       -7.981000        3.971000
 O         0.514000       -8.762000        5.708000
 O         4.464000       -6.172000        2.234000
 Si        1.494000       -8.462000        6.948000
 O         1.194000       -9.442000        8.188000
 Si        3.484000       -6.472000       10.422000
 O         3.784000       -5.492000       11.662000
 Si        0.995000       -5.973000        8.685000
 O         1.975000       -6.273000        9.925000
 Si        3.983000       -8.961000       12.159000
 O         3.003000       -8.661000       13.399000
 O         1.295000       -6.953000        7.445000
 O         3.683000       -7.981000       10.919000
 O         0.514000       -8.762000       12.656000
 O         4.464000       -6.172000        9.182000
 Si        1.494000       -3.484000      -13.896000
 O         1.194000       -4.464000      -12.656000
 Si        3.484000       -1.494000      -10.422000
 O         3.784000       -0.514000       -9.182000
 Si        0.995000       -0.995000      -12.159000
 O         1.975000       -1.295000      -10.919000
 Si        3.983000       -3.983000       -8.685000
 O         3.003000       -3.683000       -7.445000
 O         1.295000       -1.975000      -13.399000
 O         3.683000       -3.003000       -9.925000
 O         0.514000       -3.784000       -8.188000
 O         4.464000       -1.194000      -11.662000
 Si        1.494000       -3.484000       -6.948000
 O         1.194000       -4.464000       -5.708000
 Si        3.484000       -1.494000       -3.474000
 O         3.784000       -0.514000       -2.234000
 Si        0.995000       -0.995000       -5.211000
 O         1.975000       -1.295000       -3.971000
 Si        3.983000       -3.983000       -1.737000
 O         3.003000       -3.683000       -0.497000
 O         1.295000       -1.975000       -6.451000
 O         3.683000       -3.003000       -2.977000
 O         0.514000       -3.784000       -1.240000
 O         4.464000       -1.194000       -4.714000
 Si        1.494000       -3.484000        0.000000
 O         1.194000       -4.464000        1.240000
 Si        3.484000       -1.494000        3.474000
 O         3.784000       -0.514000        4.714000
 Si        0.995000       -0.995000        1.737000
 O         1.975000       -1.295000        2.977000
 Si        3.983000       -3.983000        5.211000
 O         3.003000       -3.683000        6.451000
 O         1.295000       -1.975000        0.497000
 O         3.683000       -3.003000        3.971000
 O         0.514000       -3.784000        5.708000
 O         4.464000       -1.194000        2.234000
 Si        1.494000       -3.484000        6.948000
 O         1.194000       -4.464000        8.188000
 Si        3.484000       -1.494000       10.422000
 O         3.784000       -0.514000       11.662000
 Si        0.995000       -0.995000        8.685000
 O         1.975000       -1.295000        9.925000
 Si        3.983000       -3.983000       12.159000
 O         3.003000       -3.683000       13.399000
 O         1.295000       -1.975000        7.445000
 O         3.683000       -3.003000       10.919000
 O         0.514000       -3.784000       12.656000
 O         4.464000       -1.194000        9.182000
 Si        1.494000        1.494000      -13.896000
 O         1.194000        0.514000      -12.656000
 Si        3.484000        3.484000      -10.422000
 O         3.784000        4.464000       -9.182000
 Si        0.995000        3.983000      -12.159000
 O         1.975000        3.683000      -10.919000
 Si        3.983000        0.995000       -8.685000
 O         3.003000        1.295000       -7.445000
 O         1.295000        3.003000      -13.399000
 O         3.683000        1.975000       -9.925000
 O         0.514000        1.194000       -8.188000
 O         4.464000        3.784000      -11.662000
 Si        1.494000        1.494000       -6.948000
 O         1.194000        0.514000       -5.708000
 Si        3.484000        3.484000       -3.474000
 O         3.784000        4.464000       -2.234000
 Si        0.995000        3.983000       -5.211000
 O         1.975000        3.683000       -3.971000
 Si        3.983000        0.995000       -1.737000
 O         3.003000        1.295000       -0.497000
 O         1.295000        3.003000       -6.451000
 O         3.683000        1.975000       -2.977000
 O         0.514000        1.194000       -1.240000
 O         4.464000        3.784000       -4.714000
 Si        1.494000        1.494000        0.000000
 O         1.194000        0.514000        1.240000
 Si        3.484000        3.484000        3.474000
 O         3.784000        4.464000        4.714000
 Si        0.995000        3.983000        1.737000
 O         1.975000        3.683000        2.977000
 Si        3.983000        0.995000        5.211000
 O         3.003000        1.295000        6.451000
 O         1.295000        3.003000        0.497000
 O         3.683000        1.975000        3.971000
 O         0.514000        1.194000        5.708000
 O         4.464000        3.784000        2.234000
 Si        1.494000        1.494000        6.948000
 O         1.194000        0.514000        8.188000
 Si        3.484000        3.484000       10.422000
 O         3.784000        4.464000       11.662000
 Si        0.995000        3.983000        8.685000
 O         1.975000        3.683000        9.925000
 Si        3.983000        0.995000       12.159000
 O         3.003000        1.295000       13.399000
 O         1.295000        3.003000        7.445000
 O         3.683000        1.975000       10.919000
 O         0.514000        1.194000       12.656000
 O         4.464000        3.784000        9.182000
 Si        1.494000        6.472000      -13.896000
 O         1.194000        5.492000      -12.656000
 Si        3.484000        8.462000      -10.422000
 O         3.784000        9.442000       -9.182000
 Si        0.995000        8.961000      -12.159000
 O         1.975000        8.661000      -10.919000
 Si        3.983000        5.973000       -8.685000
 O         3.003000        6.273000       -7.445000
 O         1.295000        7.981000      -13.399000
 O         3.683000        6.953000       -9.925000
 O         0.514000        6.172000       -8.188000
 O         4.464000        8.762000      -11.662000
 Si        1.494000        6.472000       -6.948000
 O         1.194000        5.492000       -5.708000
 Si        3.484000        8.462000       -3.474000
 O         3.784000        9.442000       -2.234000
 Si        0.995000        8.961000       -5.211000
 O         1.975000        8.661000       -3.971000
 Si        3.983000        5.973000       -1.737000
 O         3.003000        6.273000       -0.497000
 O         1.295000        7.981000       -6.451000
 O         3.683000        6.953000       -2.977000
 O         0.514000        6.172000       -1.240000
 O         4.464000        8.762000       -4.714000
 Si        1.494000        6.472000        0.000000
 O         1.194000        5.492000        1.240000
 Si        3.484000        8.462000        3.474000
 O         3.784000        9.442000        4.714000
 Si        0.995000        8.961000        1.737000
 O         1.975000        8.661000        2.977000
 Si        3.983000        5.973000        5.211000
 O         3.003000        6.273000        6.451000
 O         1.295000        7.981000        0.497000
 O         3.683000        6.953000        3.971000
 O         0.514000        6.172000        5.708000
 O         4.464000        8.762000        2.234000
 Si        1.494000        6.472000        6.948000
 O         1.194000        5.492000        8.188000
 Si        3.484000        8.462000       10.422000
 O         3.784000        9.442000       11.662000
 Si        0.995000        8.961000        8.685000
 O         1.975000        8.661000        9.925000
 Si        3.983000        5.973000       12.159000
 O         3.003000        6.273000       13.399000
 O         1.295000        7.981000        7.445000
 O         3.683000        6.953000       10.919000
 O         0.514000        6.172000       12.656000
 O         4.464000        8.762000        9.182000
 Si        6.472000       -8.462000      -13.896000
 O         6.172000       -9.442000      -12.656000
 Si        8.462000       -6.472000      -10.422000
 O         8.762000       -5.492000       -9.182000
 Si        5.973000       -5.973000      -12.159000
 O         6.953000       -6.273000      -10.919000
 Si        8.961000       -8.961000       -8.685000
 O         7.981000       -8.661000       -7.445000
 O         6.273000       -6.953000      -13.399000
 O         8.661000       -7.981000       -9.925000
 O         5.492000       -8.762000       -8.188000
 O         9.442000       -6.172000      -11.662000
 Si        6.472000       -8.462000       -6.948000
 O         6.172000       -9.442000       -5.708000
 Si        8.462000       -6.472000       -3.474000
 O         8.762000       -5.492000       -2.234000
 Si        5.973000       -5.973000       -5.211000
 O         6.953000       -6.273000       -3.971000
 Si        8.961000       -8.961000       -1.737000
 O         7.981000       -8.661000       -0.497000
 O         6.273000       -6.953000       -6.451000
 O         8.661000       -7.981000       -2.977000
 O         5.492000       -8.762000       -1.240000
 O         9.442000       -6.172000       -4.714000
 Si        6.472000       -8.462000        0.000000
 O         6.172000       -9.442000        1.240000
 Si        8.462000       -6.472000        3.474000
 O         8.762000       -5.492000        4.714000
 Si        5.973000       -5.973000        1.737000
 O         6.953000       -6.273000        2.977000
 Si        8.961000       -8.961000        5.211000
 O         7.981000       -8.661000        6.451000
 O         6.273000       -6.953000        0.497000
 O         8.661000       -7.981000        3.971000
 O         5.492000       -8.762000        5.708000
 O         9.442000       -6.172000        2.234000
 Si        6.472000       -8.462000        6.948000
 O         6.172000       -9.442000        8.188000
 Si        8.462000       -6.472000       10.422000
 O         8.762000       -5.492000       11.662000
 Si        5.973000       -5.973000        8.685000
 O         6.953000       -6.273000        9.925000
 Si        8.961000       -8.961000       12.159000
 O         7.981000       -8.661000       13.399000
 O         6.273000       -6.953000        7.445000
 O         8.661000       -7.981000       10.919000
 O         5.492000       -8.762000       12.656000
 O         9.442000       -6.172000        9.182000
 Si        6.472000       -3.484000      -13.896000
 O         6.172000       -4.464000      -12.656000
 Si        8.462000       -1.494000      -10.422000
 O         8.762000       -0.514000       -9.182000
 Si        5.973000       -0.995000      -12.159000
 O         6.953000       -1.295000      -10.919000
 Si        8.961000       -3.983000       -8.685000
 O         7.981000       -3.683000       -7.445000
 O         6.273000       -1.975000      -13.399000
 O         8.661000       -3.003000       -9.925000
 O         5.492000       -3.784000       -8.188000
 O         9.442000       -1.194000      -11.662000
 Si        6.472000       -3.484000       -6.948000
 O         6.172000       -4.464000       -5.708000
 Si        8.462000       -1.494000       -3.474000
 O         8.762000       -0.514000       -2.234000
 Si        5.973000       -0.995000       -5.211000
 O         6.953000       -1.295000       -3.971000
 Si        8.961000       -3.983000       -1.737000
 O         7.981000       -3.683000       -0.497000
 O         6.273000       -1.975000       -6.451000
 O         8.661000       -3.003000       -2.977000
 O         5.492000       -3.784000       -1.240000
 O         9.442000       -1.194000       -4.714000
 Si        6.472000       -3.484000        0.000000
 O         6.172000       -4.464000        1.240000
 Si        8.462000       -1.494000        3.474000
 O         8.762000       -0.514000        4.714000
 Si        5.973000       -0.995000        1.737000
 O         6.953000       -1.295000        2.977000
 Si        8.961000       -3.983000        5.211000
 O         7.981000       -3.683000        6.451000
 O         6.273000       -1.975000        0.497000
 O         8.661000       -3.003000        3.971000
 O         5.492000       -3.784000        5.708000
 O         9.442000       -1.194000        2.234000
 Si        6.472000       -3.484000        6.948000
 O         6.172000       -4.464000        8.188000
 Si        8.462000       -1.494000       10.422000
 O         8.762000       -0.514000       11.662000
 Si        5.973000       -0.995000        8.685000
 O         6.953000       -1.295000        9.925000
 Si        8.961000       -3.983000       12.159000
 O         7.981000       -3.683000       13.399000
 O         6.273000       -1.975000        7.445000
 O         8.661000       -3.003000       10.919000
 O         5.492000       -3.784000       12.656000
 O         9.442000       -1.194000        9.182000
 Si        6.472000        1.494000      -13.896000
 O         6.172000        0.514000      -12.656000
 Si        8.462000        3.484000      -10.422000
 O         8.762000        4.464000       -9.182000
 Si        5.973000        3.983000      -12.159000
 O         6.953000        3.683000      -10.919000
 Si        8.961000        0.995000       -8.685000
 O         7.981000        1.295000       -7.445000
 O         6.273000        3.003000      -13.399000
 O         8.661000        1.975000       -9.925000
 O         5.492000        1.194000       -8.188000
 O         9.442000        3.784000      -11.662000
 Si        6.472000        1.494000       -6.948000
 O         6.172000        0.514000       -5.708000
 Si        8.462000        3.484000       -3.474000
 O         8.762000        4.464000       -2.234000
 Si        5.973000        3.983000       -5.211000
 O         6.953000        3.683000       -3.971000
 Si        8.961000        0.995000       -1.737000
 O         7.981000        1.295000       -0.497000
 O         6.273000        3.003000       -6.451000
 O         8.661000        1.975000       -2.977000
 O         5.492000        1.194000       -1.240000
 O         9.442000        3.784000       -4.714000
 Si        6.472000        1.494000        0.000000
 O         6.172000        0.514000        1.240000
 Si        8.462000        3.484000        3.474000
 O         8.762000        4.464000        4.714000
 Si        5.973000        3.983000        1.737000
 O         6.953000        3.683000        2.977000
 Si        8.961000        0.995000        5.211000
 O         7.981000        1.295000        6.451000
 O         6.273000        3.003000        0.497000
 O         8.661000        1.975000        3.971000
 O         5.492000        1.194000        5.708000
 O         9.442000        3.784000        2.234000
 Si        6.472000        1.494000        6.948000
 O         6.172000        0.514000        8.188000
 Si        8.462000        3.484000       10.422000
 O         8.762000        4.464000       11.662000
 Si        5.973000        3.983000        8.685000
 O         6.953000        3.683000        9.925000
 Si        8.961000        0.995000       12.159000
 O         7.981000        1.295000       13.399000
 O         6.273000        3.003000        7.445000
 O         8.661000        1.975000       10.919000
 O         5.492000        1.194000       12.656000
 O         9.442000        3.784000        9.182000
 Si        6.472000        6.472000      -13.896000
 O         6.172000        5.492000      -12.656000
 Si        8.462000        8.462000      -10.422000
 O         8.762000        9.442000       -9.182000
 Si        5.973000        8.961000      -12.159000
 O         6.953000        8.661000      -10.919000
 Si        8.961000        5.973000       -8.685000
 O         7.981000        6.273000       -7.445000
 O         6.273000        7.981000      -13.399000
 O         8.661000        6.953000       -9.925000
 O         5.492000        6.172000       -8.188000
 O         9.442000        8.762000      -11.662000
 Si        6.472000        6.472000       -6.948000
 O         6.172000        5.492000       -5.708000
 Si        8.462000        8.462000       -3.474000
 O         8.762000        9.442000       -2.234000
 Si        5.973000        8.961000       -5.211000
 O         6.953000        8.661000       -3.971000
 Si        8.961000        5.973000       -1.737000
 O         7.981000        6.273000       -0.497000
 O         6.273000        7.981000       -6.451000
 O         8.661000        6.953000       -2.977000
 O         5.492000        6.172000       -1.240000
 O         9.442000        8.762000       -4.714000
 Si        6.472000        6.472000        0.000000
 O         6.172000        5.492000        1.240000
 Si        8.462000        8.462000        3.474000
 O         8.762000        9.442000        4.714000
 Si        5.973000        8.961000        1.737000
 O         6.953000        8.661000        2.977000
 Si        8.961000        5.973000        5.211000
 O         7.981000        6.273000        6.451000
 O         6.273000        7.981000        0.497000
 O         8.661000        6.953000        3.971000
 O         5.492000        6.172000        5.708000
 O         9.442000        8.762000        2.234000
 Si        6.472000        6.472000        6.948000
 O         6.172000        5.492000        8.188000
 Si        8.462000        8.462000       10.422000
 O         8.762000        9.442000       11.662000
 Si        5.973000        8.961000        8.685000
 O         6.953000        8.661000        9.925000
 Si        8.961000        5.973000       12.159000
 O         7.981000        6.273000       13.399000
 O         6.273000        7.981000        7.445000
 O         8.661000        6.953000       10.919000
 O         5.492000        6.172000       12.656000
 O         9.442000        8.762000        9.182000
